data_image0
_chemical_formula_structural       SrTiO3SrTiO3SrTiO3SrTiO3SrTiO3SrTiO3SrTiO3SrTiO3SrTiO3SrTiO3SrTiO3SrTiO3SrTiO3SrTiO3SrTiO3SrTiO3SrTiO3SrTiO3SrTiO3SrTiO3SrTiO3SrTiO3SrTiO3SrTiO3
_chemical_formula_sum              "Sr24 Ti24 O72"
_cell_length_a       11.045
_cell_length_b       11.715
_cell_length_c       17.045
_cell_angle_alpha    90
_cell_angle_beta     90
_cell_angle_gamma    90

_space_group_name_H-M_alt    "P 1"
_space_group_IT_number       1

loop_
  _space_group_symop_operation_xyz
  'x, y, z'

loop_
  _atom_site_type_symbol
  _atom_site_label
  _atom_site_symmetry_multiplicity
  _atom_site_fract_x
  _atom_site_fract_y
  _atom_site_fract_z
  _atom_site_occupancy
  Sr  Sr1       1.0  0.00000  0.00000  0.17600  1.0000
  Ti  Ti1       1.0  0.25000  0.16667  0.82400  1.0000
  O   O1        1.0  0.25000  0.00000  0.82400  1.0000
  O   O2        1.0  0.12500  0.16667  0.25700  1.0000
  O   O3        1.0  0.37500  0.16667  0.25700  1.0000
  Sr  Sr2       1.0  0.25000  0.00000  0.33800  1.0000
  Ti  Ti2       1.0  0.50000  0.16667  0.33800  1.0000
  O   O4        1.0  0.50000  0.00000  0.33800  1.0000
  O   O5        1.0  0.37500  0.16667  0.41900  1.0000
  O   O6        1.0  0.12500  0.16667  0.41900  1.0000
  Sr  Sr3       1.0  0.00000  0.00000  0.50000  1.0000
  Ti  Ti3       1.0  0.25000  0.16667  0.50000  1.0000
  O   O7        1.0  0.25000  0.00000  0.50000  1.0000
  O   O8        1.0  0.12500  0.16667  0.58100  1.0000
  O   O9        1.0  0.37500  0.16667  0.58100  1.0000
  Sr  Sr4       1.0  0.25000  0.00000  0.66200  1.0000
  Ti  Ti4       1.0  0.00000  0.16667  0.66200  1.0000
  O   O10       1.0  0.00000  0.00000  0.66200  1.0000
  O   O11       1.0  0.37500  0.16667  0.74300  1.0000
  O   O12       1.0  0.12500  0.16667  0.74300  1.0000
  Sr  Sr5       1.0  0.00000  0.33333  0.17600  1.0000
  Ti  Ti5       1.0  0.25000  0.50000  0.82400  1.0000
  O   O13       1.0  0.25000  0.33333  0.82400  1.0000
  O   O14       1.0  0.12500  0.50000  0.25700  1.0000
  O   O15       1.0  0.37500  0.50000  0.25700  1.0000
  Sr  Sr6       1.0  0.25000  0.33333  0.33800  1.0000
  Ti  Ti6       1.0  0.50000  0.50000  0.33800  1.0000
  O   O16       1.0  0.50000  0.33333  0.33800  1.0000
  O   O17       1.0  0.37500  0.50000  0.41900  1.0000
  O   O18       1.0  0.12500  0.50000  0.41900  1.0000
  Sr  Sr7       1.0  0.00000  0.33333  0.50000  1.0000
  Ti  Ti7       1.0  0.25000  0.50000  0.50000  1.0000
  O   O19       1.0  0.25000  0.33333  0.50000  1.0000
  O   O20       1.0  0.12500  0.50000  0.58100  1.0000
  O   O21       1.0  0.37500  0.50000  0.58100  1.0000
  Sr  Sr8       1.0  0.25000  0.33333  0.66200  1.0000
  Ti  Ti8       1.0  0.00000  0.50000  0.66200  1.0000
  O   O22       1.0  0.00000  0.33333  0.66200  1.0000
  O   O23       1.0  0.37500  0.50000  0.74300  1.0000
  O   O24       1.0  0.12500  0.50000  0.74300  1.0000
  Sr  Sr9       1.0  0.00000  0.66667  0.17600  1.0000
  Ti  Ti9       1.0  0.25000  0.83333  0.82400  1.0000
  O   O25       1.0  0.25000  0.66667  0.82400  1.0000
  O   O26       1.0  0.12500  0.83333  0.25700  1.0000
  O   O27       1.0  0.37500  0.83333  0.25700  1.0000
  Sr  Sr10      1.0  0.25000  0.66667  0.33800  1.0000
  Ti  Ti10      1.0  0.50000  0.83333  0.33800  1.0000
  O   O28       1.0  0.50000  0.66667  0.33800  1.0000
  O   O29       1.0  0.37500  0.83333  0.41900  1.0000
  O   O30       1.0  0.12500  0.83333  0.41900  1.0000
  Sr  Sr11      1.0  0.00000  0.66667  0.50000  1.0000
  Ti  Ti11      1.0  0.25000  0.83333  0.50000  1.0000
  O   O31       1.0  0.25000  0.66667  0.50000  1.0000
  O   O32       1.0  0.12500  0.83333  0.58100  1.0000
  O   O33       1.0  0.37500  0.83333  0.58100  1.0000
  Sr  Sr12      1.0  0.25000  0.66667  0.66200  1.0000
  Ti  Ti12      1.0  0.00000  0.83333  0.66200  1.0000
  O   O34       1.0  0.00000  0.66667  0.66200  1.0000
  O   O35       1.0  0.37500  0.83333  0.74300  1.0000
  O   O36       1.0  0.12500  0.83333  0.74300  1.0000
  Sr  Sr13      1.0  0.50000  0.00000  0.17600  1.0000
  Ti  Ti13      1.0  0.75000  0.16667  0.82400  1.0000
  O   O37       1.0  0.75000  0.00000  0.82400  1.0000
  O   O38       1.0  0.62500  0.16667  0.25700  1.0000
  O   O39       1.0  0.87500  0.16667  0.25700  1.0000
  Sr  Sr14      1.0  0.75000  0.00000  0.33800  1.0000
  Ti  Ti14      1.0  1.00000  0.16667  0.33800  1.0000
  O   O40       1.0  1.00000  0.00000  0.33800  1.0000
  O   O41       1.0  0.87500  0.16667  0.41900  1.0000
  O   O42       1.0  0.62500  0.16667  0.41900  1.0000
  Sr  Sr15      1.0  0.50000  0.00000  0.50000  1.0000
  Ti  Ti15      1.0  0.75000  0.16667  0.50000  1.0000
  O   O43       1.0  0.75000  0.00000  0.50000  1.0000
  O   O44       1.0  0.62500  0.16667  0.58100  1.0000
  O   O45       1.0  0.87500  0.16667  0.58100  1.0000
  Sr  Sr16      1.0  0.75000  0.00000  0.66200  1.0000
  Ti  Ti16      1.0  0.50000  0.16667  0.66200  1.0000
  O   O46       1.0  0.50000  0.00000  0.66200  1.0000
  O   O47       1.0  0.87500  0.16667  0.74300  1.0000
  O   O48       1.0  0.62500  0.16667  0.74300  1.0000
  Sr  Sr17      1.0  0.50000  0.33333  0.17600  1.0000
  Ti  Ti17      1.0  0.75000  0.50000  0.82400  1.0000
  O   O49       1.0  0.75000  0.33333  0.82400  1.0000
  O   O50       1.0  0.62500  0.50000  0.25700  1.0000
  O   O51       1.0  0.87500  0.50000  0.25700  1.0000
  Sr  Sr18      1.0  0.75000  0.33333  0.33800  1.0000
  Ti  Ti18      1.0  1.00000  0.50000  0.33800  1.0000
  O   O52       1.0  1.00000  0.33333  0.33800  1.0000
  O   O53       1.0  0.87500  0.50000  0.41900  1.0000
  O   O54       1.0  0.62500  0.50000  0.41900  1.0000
  Sr  Sr19      1.0  0.50000  0.33333  0.50000  1.0000
  Ti  Ti19      1.0  0.75000  0.50000  0.50000  1.0000
  O   O55       1.0  0.75000  0.33333  0.50000  1.0000
  O   O56       1.0  0.62500  0.50000  0.58100  1.0000
  O   O57       1.0  0.87500  0.50000  0.58100  1.0000
  Sr  Sr20      1.0  0.75000  0.33333  0.66200  1.0000
  Ti  Ti20      1.0  0.50000  0.50000  0.66200  1.0000
  O   O58       1.0  0.50000  0.33333  0.66200  1.0000
  O   O59       1.0  0.87500  0.50000  0.74300  1.0000
  O   O60       1.0  0.62500  0.50000  0.74300  1.0000
  Sr  Sr21      1.0  0.50000  0.66667  0.17600  1.0000
  Ti  Ti21      1.0  0.75000  0.83333  0.82400  1.0000
  O   O61       1.0  0.75000  0.66667  0.82400  1.0000
  O   O62       1.0  0.62500  0.83333  0.25700  1.0000
  O   O63       1.0  0.87500  0.83333  0.25700  1.0000
  Sr  Sr22      1.0  0.75000  0.66667  0.33800  1.0000
  Ti  Ti22      1.0  1.00000  0.83333  0.33800  1.0000
  O   O64       1.0  1.00000  0.66667  0.33800  1.0000
  O   O65       1.0  0.87500  0.83333  0.41900  1.0000
  O   O66       1.0  0.62500  0.83333  0.41900  1.0000
  Sr  Sr23      1.0  0.50000  0.66667  0.50000  1.0000
  Ti  Ti23      1.0  0.75000  0.83333  0.50000  1.0000
  O   O67       1.0  0.75000  0.66667  0.50000  1.0000
  O   O68       1.0  0.62500  0.83333  0.58100  1.0000
  O   O69       1.0  0.87500  0.83333  0.58100  1.0000
  Sr  Sr24      1.0  0.75000  0.66667  0.66200  1.0000
  Ti  Ti24      1.0  0.50000  0.83333  0.66200  1.0000
  O   O70       1.0  0.50000  0.66667  0.66200  1.0000
  O   O71       1.0  0.87500  0.83333  0.74300  1.0000
  O   O72       1.0  0.62500  0.83333  0.74300  1.0000
